  
       XFOIL         Version 6.99
  
 Calculated polar for: NACA 65(1)-212                                  
  
 1 1 Reynolds number fixed          Mach number fixed         
  
 xtrf =   1.000 (top)        1.000 (bottom)  
 Mach =   0.440     Re =     1.000 e 6     Ncrit =   9.000
  
   alpha    CL        CD       CDp       CM     Top_Xtr  Bot_Xtr
  ------ -------- --------- --------- -------- -------- --------
 -10.000  -0.4970   0.08435   0.08264  -0.0426   1.0000   0.0150
  -9.750  -0.5034   0.07840   0.07671  -0.0460   1.0000   0.0147
  -9.500  -0.5125   0.07123   0.06956  -0.0509   1.0000   0.0148
  -9.250  -0.5256   0.06291   0.06120  -0.0578   1.0000   0.0144
  -9.000  -0.5434   0.05633   0.05456  -0.0625   1.0000   0.0144
  -8.750  -0.5639   0.05093   0.04909  -0.0652   1.0000   0.0139
  -8.500  -0.5687   0.04534   0.04332  -0.0709   0.9744   0.0143
  -8.250  -0.5702   0.03921   0.03688  -0.0771   0.9445   0.0143
  -8.000  -0.5857   0.03635   0.03375  -0.0737   0.9145   0.0143
  -7.750  -0.5949   0.03330   0.03043  -0.0704   0.8957   0.0145
  -7.500  -0.5984   0.03014   0.02697  -0.0673   0.8813   0.0145
  -7.250  -0.5966   0.02678   0.02326  -0.0643   0.8697   0.0153
  -7.000  -0.5879   0.02376   0.01985  -0.0616   0.8597   0.0159
  -6.750  -0.5717   0.02153   0.01727  -0.0595   0.8501   0.0164
  -6.500  -0.5574   0.01867   0.01402  -0.0573   0.8418   0.0168
  -6.250  -0.5349   0.01705   0.01217  -0.0558   0.8334   0.0174
  -6.000  -0.5092   0.01583   0.01075  -0.0545   0.8261   0.0180
  -5.750  -0.4819   0.01495   0.00974  -0.0535   0.8187   0.0189
  -5.500  -0.4549   0.01395   0.00858  -0.0523   0.8121   0.0197
  -5.250  -0.4278   0.01308   0.00759  -0.0512   0.8049   0.0203
  -5.000  -0.4011   0.01235   0.00673  -0.0501   0.7984   0.0209
  -4.750  -0.3736   0.01173   0.00603  -0.0491   0.7913   0.0214
  -4.500  -0.3470   0.01113   0.00531  -0.0481   0.7849   0.0220
  -4.250  -0.3214   0.01035   0.00447  -0.0470   0.7786   0.0237
  -4.000  -0.2926   0.00994   0.00398  -0.0464   0.7724   0.0249
  -3.750  -0.2630   0.00961   0.00358  -0.0459   0.7668   0.0267
  -3.500  -0.2326   0.00933   0.00325  -0.0456   0.7606   0.0284
  -3.250  -0.2030   0.00900   0.00282  -0.0452   0.7549   0.0319
  -3.000  -0.1722   0.00874   0.00255  -0.0451   0.7493   0.0368
  -2.750  -0.1415   0.00849   0.00230  -0.0449   0.7438   0.0480
  -2.500  -0.1153   0.00766   0.00192  -0.0445   0.7386   0.1874
  -2.250  -0.0928   0.00616   0.00142  -0.0442   0.7330   0.4724
  -2.000  -0.0630   0.00582   0.00135  -0.0441   0.7278   0.5706
  -1.750  -0.0311   0.00576   0.00133  -0.0441   0.7231   0.6033
  -1.500   0.0010   0.00571   0.00134  -0.0442   0.7180   0.6304
  -1.250   0.0331   0.00572   0.00135  -0.0443   0.7131   0.6525
  -1.000   0.0652   0.00576   0.00137  -0.0444   0.7086   0.6675
  -0.750   0.0976   0.00574   0.00139  -0.0446   0.7038   0.6773
  -0.500   0.1302   0.00576   0.00138  -0.0449   0.6990   0.6842
  -0.250   0.1624   0.00578   0.00139  -0.0451   0.6947   0.6888
   0.000   0.1952   0.00578   0.00140  -0.0454   0.6902   0.6935
   0.250   0.2279   0.00580   0.00140  -0.0458   0.6857   0.6981
   0.500   0.2602   0.00581   0.00143  -0.0460   0.6814   0.7027
   0.750   0.2928   0.00584   0.00146  -0.0463   0.6772   0.7076
   1.250   0.3577   0.00588   0.00153  -0.0467   0.6662   0.7173
   1.500   0.3900   0.00588   0.00156  -0.0468   0.6566   0.7225
   2.000   0.4535   0.00593   0.00161  -0.0468   0.6306   0.7328
   2.250   0.4848   0.00599   0.00164  -0.0466   0.6097   0.7382
   2.500   0.5160   0.00608   0.00171  -0.0464   0.5890   0.7438
   2.750   0.5461   0.00622   0.00179  -0.0460   0.5533   0.7493
   3.000   0.5704   0.00678   0.00201  -0.0447   0.4545   0.7553
   3.250   0.5821   0.00832   0.00274  -0.0419   0.2497   0.7612
   3.500   0.5961   0.00965   0.00345  -0.0393   0.0873   0.7679
   3.750   0.6202   0.01026   0.00389  -0.0380   0.0401   0.7744
   4.000   0.6476   0.01061   0.00427  -0.0371   0.0320   0.7808
   4.250   0.6750   0.01098   0.00467  -0.0362   0.0277   0.7877
   4.500   0.6999   0.01147   0.00526  -0.0347   0.0245   0.7942
   4.750   0.7264   0.01187   0.00573  -0.0336   0.0229   0.8017
   5.000   0.7510   0.01234   0.00630  -0.0320   0.0215   0.8090
   5.250   0.7748   0.01286   0.00688  -0.0304   0.0201   0.8172
   5.500   0.7921   0.01370   0.00783  -0.0277   0.0190   0.8254
   5.750   0.8093   0.01455   0.00880  -0.0250   0.0184   0.8344
   6.000   0.8276   0.01527   0.00964  -0.0224   0.0181   0.8435
   6.250   0.8438   0.01604   0.01054  -0.0193   0.0176   0.8534
   6.500   0.8606   0.01700   0.01163  -0.0165   0.0173   0.8644
   6.750   0.8794   0.01805   0.01285  -0.0139   0.0168   0.8757
   7.000   0.9003   0.01935   0.01434  -0.0117   0.0165   0.8869
   7.250   0.9228   0.02092   0.01613  -0.0098   0.0162   0.8982
   7.500   0.9412   0.02236   0.01779  -0.0074   0.0156   0.9122
   7.750   0.9544   0.02400   0.01968  -0.0042   0.0152   0.9303
   8.000   0.9644   0.02596   0.02195  -0.0009   0.0150   0.9614
   8.250   0.9756   0.02824   0.02448   0.0009   0.0147   1.0000
   8.500   0.9772   0.03084   0.02732   0.0038   0.0146   1.0000
   8.750   0.9730   0.03342   0.03011   0.0067   0.0144   1.0000
   9.000   0.9645   0.03655   0.03346   0.0093   0.0143   1.0000
   9.250   0.9535   0.03993   0.03705   0.0113   0.0142   1.0000
   9.500   0.9367   0.04389   0.04120   0.0125   0.0141   1.0000
   9.750   0.9150   0.04865   0.04615   0.0128   0.0139   1.0000
  10.000   0.8993   0.05326   0.05092   0.0122   0.0139   1.0000
