  
       XFOIL         Version 6.99
  
 Calculated polar for: NACA 65(1)-212                                  
  
 1 1 Reynolds number fixed          Mach number fixed         
  
 xtrf =   1.000 (top)        1.000 (bottom)  
 Mach =   0.000     Re =     1.000 e 6     Ncrit =   9.000
  
   alpha    CL        CD       CDp       CM     Top_Xtr  Bot_Xtr
  ------ -------- --------- --------- -------- -------- --------
 -10.000  -0.7974   0.01360   0.00998  -0.0479   0.9825   0.0120
  -9.750  -0.7704   0.01273   0.00894  -0.0491   0.9718   0.0123
  -9.500  -0.7633   0.00891   0.00468  -0.0480   0.9556   0.0130
  -9.250  -0.7458   0.00821   0.00388  -0.0470   0.9422   0.0133
  -9.000  -0.7274   0.00782   0.00339  -0.0459   0.9307   0.0137
  -8.750  -0.7080   0.00735   0.00282  -0.0450   0.9205   0.0141
  -8.500  -0.6876   0.00675   0.00211  -0.0442   0.9111   0.0144
  -8.250  -0.6669   0.00617   0.00140  -0.0434   0.9025   0.0150
  -8.000  -0.6450   0.00562   0.00073  -0.0428   0.8938   0.0155
  -7.750  -0.6224   0.00526   0.00026  -0.0422   0.8859   0.0159
  -7.500  -0.5991   0.00492  -0.00019  -0.0418   0.8780   0.0162
  -7.250  -0.5775   0.00405  -0.00120  -0.0411   0.8709   0.0167
  -7.000  -0.5575   0.00319  -0.00216  -0.0403   0.8632   0.0173
  -6.750  -0.5345   0.00288  -0.00251  -0.0399   0.8561   0.0179
  -6.500  -0.5102   0.00271  -0.00272  -0.0396   0.8487   0.0186
  -6.250  -0.4860   0.00252  -0.00297  -0.0393   0.8421   0.0193
  -6.000  -0.4619   0.00231  -0.00324  -0.0390   0.8352   0.0199
  -5.750  -0.4380   0.00210  -0.00352  -0.0386   0.8290   0.0203
  -5.500  -0.4131   0.00194  -0.00373  -0.0384   0.8223   0.0209
  -5.250  -0.3883   0.00182  -0.00392  -0.0382   0.8159   0.0214
  -5.000  -0.3624   0.00173  -0.00405  -0.0381   0.8096   0.0218
  -4.750  -0.3396   0.00148  -0.00441  -0.0377   0.8034   0.0238
  -4.500  -0.3137   0.00140  -0.00452  -0.0376   0.7978   0.0254
  -4.250  -0.2872   0.00134  -0.00462  -0.0377   0.7918   0.0270
  -4.000  -0.2606   0.00129  -0.00472  -0.0377   0.7860   0.0284
  -3.750  -0.2342   0.00122  -0.00485  -0.0377   0.7803   0.0316
  -3.500  -0.2074   0.00116  -0.00491  -0.0378   0.7745   0.0363
  -3.250  -0.1805   0.00112  -0.00498  -0.0378   0.7691   0.0445
  -3.000  -0.1550   0.00100  -0.00479  -0.0380   0.7639   0.1245
  -2.750  -0.1321   0.00080  -0.00427  -0.0383   0.7590   0.3339
  -2.500  -0.1081   0.00068  -0.00377  -0.0384   0.7542   0.5224
  -2.250  -0.0805   0.00066  -0.00365  -0.0386   0.7489   0.5780
  -2.000  -0.0526   0.00065  -0.00362  -0.0388   0.7437   0.6050
  -1.750  -0.0247   0.00064  -0.00360  -0.0389   0.7388   0.6282
  -1.500   0.0035   0.00064  -0.00357  -0.0391   0.7337   0.6491
  -1.250   0.0317   0.00064  -0.00357  -0.0393   0.7286   0.6658
  -1.000   0.0597   0.00064  -0.00357  -0.0394   0.7238   0.6794
  -0.750   0.0880   0.00064  -0.00354  -0.0396   0.7189   0.6906
  -0.500   0.1165   0.00064  -0.00358  -0.0399   0.7140   0.6963
  -0.250   0.1446   0.00064  -0.00359  -0.0401   0.7094   0.7009
   0.000   0.1732   0.00063  -0.00357  -0.0403   0.7049   0.7057
   0.250   0.2017   0.00063  -0.00358  -0.0406   0.7002   0.7106
   0.500   0.2299   0.00064  -0.00359  -0.0408   0.6957   0.7152
   0.750   0.2583   0.00063  -0.00357  -0.0411   0.6914   0.7202
   1.000   0.2868   0.00063  -0.00356  -0.0413   0.6862   0.7253
   1.250   0.3148   0.00063  -0.00357  -0.0415   0.6792   0.7302
   1.500   0.3427   0.00063  -0.00355  -0.0416   0.6688   0.7353
   1.750   0.3709   0.00063  -0.00355  -0.0418   0.6596   0.7408
   2.000   0.3985   0.00063  -0.00356  -0.0419   0.6462   0.7459
   2.250   0.4258   0.00063  -0.00357  -0.0419   0.6273   0.7513
   2.500   0.4534   0.00064  -0.00359  -0.0420   0.6112   0.7570
   2.750   0.4803   0.00064  -0.00361  -0.0419   0.5887   0.7624
   3.000   0.5069   0.00066  -0.00365  -0.0418   0.5604   0.7682
   3.250   0.5313   0.00070  -0.00383  -0.0415   0.4920   0.7737
   3.500   0.5478   0.00087  -0.00433  -0.0401   0.3220   0.7790
   3.750   0.5654   0.00109  -0.00469  -0.0390   0.1786   0.7850
   4.000   0.5845   0.00131  -0.00490  -0.0380   0.0718   0.7908
   4.250   0.6077   0.00144  -0.00489  -0.0375   0.0393   0.7970
   4.750   0.6572   0.00160  -0.00470  -0.0369   0.0283   0.8096
   5.000   0.6808   0.00175  -0.00451  -0.0364   0.0246   0.8165
   5.250   0.7055   0.00182  -0.00438  -0.0361   0.0231   0.8231
   5.500   0.7298   0.00193  -0.00424  -0.0357   0.0215   0.8305
   5.750   0.7526   0.00208  -0.00405  -0.0351   0.0199   0.8374
   6.000   0.7710   0.00243  -0.00359  -0.0338   0.0186   0.8452
   6.250   0.7941   0.00256  -0.00339  -0.0332   0.0183   0.8525
   6.500   0.8161   0.00276  -0.00313  -0.0325   0.0178   0.8607
   6.750   0.8367   0.00300  -0.00282  -0.0315   0.0174   0.8690
   7.000   0.8571   0.00328  -0.00247  -0.0305   0.0170   0.8781
   7.250   0.8761   0.00356  -0.00210  -0.0293   0.0166   0.8872
   7.500   0.8946   0.00391  -0.00168  -0.0280   0.0162   0.8968
   7.750   0.9128   0.00429  -0.00124  -0.0267   0.0158   0.9074
   8.000   0.9300   0.00462  -0.00084  -0.0251   0.0154   0.9189
   8.250   0.9459   0.00493  -0.00048  -0.0234   0.0149   0.9322
   8.500   0.9577   0.00550   0.00017  -0.0209   0.0146   0.9504
   8.750   0.9726   0.00720   0.00201  -0.0192   0.0141   0.9890
   9.000   0.9935   0.00861   0.00352  -0.0188   0.0138   1.0000
   9.250   1.0139   0.00946   0.00445  -0.0181   0.0137   1.0000
   9.500   1.0332   0.01032   0.00540  -0.0173   0.0135   1.0000
   9.750   1.0503   0.01118   0.00635  -0.0162   0.0133   1.0000
  10.000   1.0653   0.01194   0.00721  -0.0148   0.0129   1.0000
