  
       XFOIL         Version 6.99
  
 Calculated polar for: NACA 65(1)-212                                  
  
 1 1 Reynolds number fixed          Mach number fixed         
  
 xtrf =   1.000 (top)        1.000 (bottom)  
 Mach =   0.000     Re =     1.000 e 6     Ncrit =   9.000
  
   alpha    CL        CD       CDp       CM     Top_Xtr  Bot_Xtr
  ------ -------- --------- --------- -------- -------- --------
 -10.000  -0.8502   0.02601   0.02215  -0.0438   0.9908   0.0118
  -9.500  -0.7980   0.02122   0.01675  -0.0469   0.9761   0.0129
  -9.250  -0.7688   0.02018   0.01562  -0.0483   0.9671   0.0133
  -9.000  -0.7415   0.01967   0.01504  -0.0489   0.9560   0.0137
  -8.750  -0.7185   0.01901   0.01427  -0.0485   0.9440   0.0141
  -8.500  -0.6967   0.01833   0.01347  -0.0478   0.9329   0.0145
  -8.250  -0.6748   0.01768   0.01271  -0.0470   0.9224   0.0151
  -8.000  -0.6522   0.01701   0.01192  -0.0463   0.9129   0.0156
  -7.750  -0.6291   0.01652   0.01130  -0.0457   0.9040   0.0160
  -7.500  -0.6051   0.01608   0.01077  -0.0452   0.8949   0.0163
  -7.250  -0.5837   0.01472   0.00927  -0.0443   0.8869   0.0167
  -7.000  -0.5631   0.01351   0.00798  -0.0434   0.8784   0.0174
  -6.750  -0.5394   0.01301   0.00743  -0.0429   0.8708   0.0180
  -6.500  -0.5148   0.01266   0.00704  -0.0426   0.8629   0.0187
  -6.250  -0.4899   0.01229   0.00662  -0.0422   0.8555   0.0193
  -6.000  -0.4656   0.01183   0.00609  -0.0418   0.8479   0.0199
  -5.750  -0.4411   0.01139   0.00558  -0.0414   0.8411   0.0204
  -5.500  -0.4158   0.01102   0.00516  -0.0411   0.8340   0.0210
  -5.250  -0.3904   0.01070   0.00477  -0.0408   0.8275   0.0214
  -5.000  -0.3648   0.01033   0.00435  -0.0406   0.8204   0.0220
  -4.750  -0.3411   0.00972   0.00364  -0.0400   0.8139   0.0239
  -4.500  -0.3145   0.00945   0.00336  -0.0400   0.8072   0.0255
  -4.250  -0.2879   0.00923   0.00309  -0.0399   0.8011   0.0271
  -4.000  -0.2607   0.00904   0.00287  -0.0399   0.7952   0.0286
  -3.750  -0.2341   0.00874   0.00251  -0.0398   0.7889   0.0322
  -3.500  -0.2070   0.00855   0.00229  -0.0398   0.7832   0.0366
  -3.250  -0.1797   0.00832   0.00208  -0.0398   0.7770   0.0459
  -3.000  -0.1548   0.00771   0.00180  -0.0397   0.7712   0.1386
  -2.750  -0.1323   0.00657   0.00143  -0.0397   0.7657   0.3492
  -2.500  -0.1084   0.00572   0.00121  -0.0396   0.7599   0.5304
  -2.250  -0.0811   0.00557   0.00117  -0.0396   0.7546   0.5820
  -2.000  -0.0527   0.00549   0.00114  -0.0398   0.7492   0.6085
  -1.750  -0.0245   0.00544   0.00113  -0.0399   0.7439   0.6319
  -1.500   0.0036   0.00544   0.00113  -0.0400   0.7389   0.6532
  -1.250   0.0321   0.00541   0.00115  -0.0402   0.7338   0.6707
  -1.000   0.0605   0.00543   0.00116  -0.0403   0.7287   0.6847
  -0.750   0.0889   0.00546   0.00118  -0.0405   0.7239   0.6950
  -0.500   0.1177   0.00544   0.00117  -0.0407   0.7190   0.7004
  -0.250   0.1464   0.00544   0.00117  -0.0409   0.7141   0.7052
   0.000   0.1750   0.00549   0.00117  -0.0412   0.7094   0.7101
   0.250   0.2039   0.00547   0.00118  -0.0415   0.7049   0.7149
   0.500   0.2326   0.00547   0.00120  -0.0417   0.7002   0.7198
   0.750   0.2612   0.00552   0.00122  -0.0419   0.6957   0.7250
   1.000   0.2900   0.00552   0.00125  -0.0422   0.6912   0.7299
   1.250   0.3185   0.00552   0.00127  -0.0424   0.6847   0.7350
   1.500   0.3467   0.00555   0.00129  -0.0425   0.6747   0.7405
   2.000   0.4028   0.00560   0.00134  -0.0427   0.6519   0.7512
   2.250   0.4305   0.00566   0.00135  -0.0427   0.6330   0.7569
   2.500   0.4582   0.00570   0.00141  -0.0427   0.6175   0.7624
   2.750   0.4856   0.00579   0.00146  -0.0427   0.5955   0.7684
   3.000   0.5127   0.00592   0.00153  -0.0426   0.5679   0.7742
   3.250   0.5377   0.00619   0.00164  -0.0422   0.5123   0.7800
   3.500   0.5556   0.00723   0.00203  -0.0409   0.3571   0.7868
   3.750   0.5730   0.00834   0.00252  -0.0395   0.2086   0.7933
   4.000   0.5919   0.00929   0.00298  -0.0384   0.0926   0.8004
   4.250   0.6144   0.00987   0.00334  -0.0377   0.0420   0.8068
   4.500   0.6394   0.01018   0.00364  -0.0373   0.0328   0.8137
   4.750   0.6651   0.01042   0.00391  -0.0371   0.0295   0.8206
   5.000   0.6886   0.01085   0.00439  -0.0364   0.0249   0.8281
   5.250   0.7142   0.01108   0.00466  -0.0361   0.0237   0.8355
   5.500   0.7389   0.01134   0.00497  -0.0357   0.0220   0.8431
   5.750   0.7631   0.01167   0.00532  -0.0352   0.0203   0.8508
   6.000   0.7830   0.01237   0.00612  -0.0339   0.0188   0.8594
   6.250   0.8060   0.01273   0.00655  -0.0332   0.0183   0.8678
   6.500   0.8285   0.01313   0.00701  -0.0324   0.0179   0.8772
   6.750   0.8501   0.01354   0.00749  -0.0314   0.0175   0.8866
   7.000   0.8708   0.01401   0.00804  -0.0303   0.0170   0.8966
   7.250   0.8909   0.01452   0.00861  -0.0290   0.0167   0.9076
   7.500   0.9097   0.01502   0.00920  -0.0276   0.0163   0.9196
   7.750   0.9278   0.01550   0.00975  -0.0259   0.0159   0.9333
   8.250   0.9692   0.01648   0.01087  -0.0240   0.0150   0.9805
   8.500   0.9899   0.01740   0.01182  -0.0234   0.0145   1.0000
   8.750   1.0059   0.01938   0.01391  -0.0221   0.0140   1.0000
   9.000   1.0273   0.02045   0.01506  -0.0215   0.0138   1.0000
   9.250   1.0486   0.02126   0.01595  -0.0208   0.0137   1.0000
   9.500   1.0693   0.02213   0.01691  -0.0201   0.0135   1.0000
   9.750   1.0893   0.02295   0.01781  -0.0192   0.0132   1.0000
  10.000   1.1083   0.02397   0.01893  -0.0183   0.0129   1.0000
